101
t=0
C    0.000    0.000    0.000
C    2.379    1.822   -0.137
C    2.725    0.177   -2.621
C    1.326    2.590   -3.724
C    0.581    5.475   -4.076
C   -2.402    5.783   -3.983
C    0.449    5.854   -3.052
C   -0.151    7.861   -5.200
C    2.499    9.267   -5.243
C    2.885    6.437   -6.160
C    1.494    7.162   -8.717
C    1.316    6.008  -11.480
C    0.408    8.243   -9.697
C   -1.444    7.347  -11.880
C   -3.882    6.218  -13.215
C   -1.786    4.083  -13.002
C   -2.923    2.471  -10.741
C   -2.218    2.820   -7.846
C   -4.315    2.385   -5.745
C   -6.745    4.118   -5.436
C   -4.436    2.220   -5.698
C   -3.484    0.848   -3.206
C   -6.016    2.370   -3.728
C   -7.438   -0.025   -4.842
C   -8.785    0.968   -7.332
C   -5.801    0.671   -7.424
C   -8.320    1.848   -6.298
C   -9.322    0.637   -8.853
C  -10.392    3.234   -9.906
C  -10.584    4.374   -7.138
C   -9.016    6.899   -7.541
C   -8.930    7.601   -4.625
C   -6.913    9.589   -3.635
C   -4.900   11.526   -4.729
C   -5.374   10.177   -7.366
C   -3.792    9.050   -9.652
C   -2.899   11.901   -9.917
C   -3.778   12.310  -12.756
C   -2.326   12.997  -15.290
C   -1.953   12.490  -12.357
C   -4.377   14.087  -11.599
C   -3.989   15.630  -14.142
C   -5.193   12.951  -14.752
C   -4.569   14.181  -17.416
C   -2.150   12.703  -16.433
C   -2.299   12.509  -13.443
C   -5.008   13.302  -14.459
C   -6.880   11.229  -15.554
C   -8.746    8.927  -16.022
C  -10.204   11.285  -17.168
C  -11.127   10.320  -19.854
C  -11.624   12.777  -21.501
C  -11.811   12.039  -24.403
C  -12.203    9.077  -24.136
C  -11.277    6.261  -24.601
C  -10.882    7.389  -27.352
C  -13.489    6.901  -28.754
C  -15.501    9.081  -28.307
C  -13.755   10.081  -30.532
C  -15.233    7.679  -31.554
C  -15.957    8.536  -28.771
C  -14.890   10.999  -30.112
C  -16.267    9.791  -32.488
C  -16.868   12.169  -34.216
C  -17.616   15.073  -34.122
C  -17.329   14.152  -36.963
C  -20.149   15.129  -36.659
C  -19.416   14.846  -39.554
C  -17.623   15.736  -41.788
C  -16.318   13.109  -42.417
C  -15.718   15.172  -44.511
C  -17.072   13.103  -46.210
C  -14.659   11.329  -46.032
C  -15.028   14.222  -46.734
C  -16.202   15.710  -44.409
C  -16.210   12.829  -43.573
C  -16.631   15.364  -42.025
C  -17.546   18.203  -42.345
C  -15.689   19.498  -44.314
C  -14.965   21.428  -42.134
C  -15.608   21.662  -39.213
C  -18.560   21.799  -38.694
C  -17.182   22.872  -36.255
C  -15.006   24.830  -35.600
C  -12.763   25.001  -33.614
C  -14.292   26.176  -35.913
C  -16.819   26.677  -34.376
C  -14.315   27.915  -33.281
C  -16.893   27.492  -31.807
C  -18.722   29.133  -33.528
C  -18.301   31.590  -35.197
C  -19.317   30.437  -37.774
C  -18.019   33.096  -38.272
C  -17.427   30.158  -38.408
C  -19.919   28.512  -38.697
C  -20.492   28.380  -35.755
C  -21.509   30.844  -34.378
C  -20.457   28.850  -32.399
C  -22.286   29.639  -34.642
C  -24.419   31.034  -33.060
C  -22.230   29.285  -31.988
101
t=1
C    0.000    0.000    0.000
C   -0.358   -2.967    0.259
C    2.460   -2.514    1.186
C    1.435   -1.671    3.876
C    3.271   -2.827    5.949
C    3.908   -0.425    4.268
C    3.537    1.154    6.792
C    6.115    1.315    8.317
C    3.675    0.093    9.562
C    4.533   -2.767    9.265
C    3.311   -5.479    9.654
C    4.638   -6.386   12.187
C    2.384   -8.298   11.675
C    4.112  -10.750   11.741
C    6.593   -9.204   12.417
C    4.891   -8.546   14.798
C    6.214  -11.218   14.467
C    5.932   -8.650   12.942
C    8.271   -6.773   12.878
C   10.557   -5.243   14.075
C   10.168   -8.096   13.234
C    9.228   -5.592   14.593
C   11.601   -6.698   16.058
C    8.823   -7.384   16.958
C   10.748   -6.330   14.913
C   13.554   -7.333   15.259
C   13.275   -8.729   17.900
C   15.834   -8.289   16.397
C   13.430   -9.928   15.666
C   13.705  -10.801   18.523
C   14.111   -8.027   17.457
C   15.050  -10.853   17.822
C   16.577  -12.285   15.674
C   13.838  -12.635   14.502
C   11.804  -12.315   16.684
C   11.886  -10.061   14.706
C   13.366  -12.647   14.356
C   14.881  -15.164   13.749
C   12.456  -16.743   14.539
C    9.646  -15.694   14.525
C    9.380  -13.468   12.531
C    9.769  -11.875   15.043
C   11.907  -13.965   14.800
C   13.722  -12.346   16.556
C   11.618  -11.532   14.578
C   11.255  -13.978   16.276
C   13.813  -15.540   16.403
C   15.924  -13.410   16.499
C   13.356  -13.025   14.996
C   12.697  -13.433   12.098
C   12.322  -14.552    9.340
C    9.571  -13.829    8.388
C   11.866  -15.501    9.355
C   13.749  -13.463    8.216
C   13.465  -16.165    6.942
C   13.738  -14.873    9.636
C   16.101  -13.077    9.197
C   15.497  -10.187    8.663
C   18.042  -11.738    9.008
C   20.591  -12.901    7.935
C   21.084  -12.548   10.873
C   23.851  -12.373   12.020
C   26.602  -13.322   11.291
C   25.745  -14.325    8.597
C   24.310  -14.386   11.231
C   23.214  -16.785    9.801
C   23.493  -15.822   12.629
C   23.513  -14.919   15.490
C   22.894  -12.333   16.879
C   22.539  -11.267   14.097
C   24.560  -11.101   11.887
C   24.796  -13.999   11.148
C   26.329  -15.991   12.786
C   27.395  -18.254   14.441
C   27.871  -20.663   12.718
C   29.417  -18.220   11.919
C   31.418  -15.985   11.917
C   32.043  -15.379    9.046
C   31.548  -17.852   10.671
C   34.406  -18.763   10.590
C   32.894  -21.330   10.939
C   33.447  -19.221    8.879
C   35.873  -18.267    7.393
C   37.471  -16.122    6.035
C   38.420  -18.570    4.582
C   40.941  -19.642    5.806
C   41.757  -20.309    8.615
C   41.748  -20.930    5.680
C   42.390  -19.500    8.237
C   44.450  -17.337    7.958
C   43.393  -17.785    5.187
C   40.522  -18.623    5.424
C   40.871  -21.070    3.724
C   40.164  -23.480    5.364
C   38.528  -21.829    7.262
C   38.278  -21.217    4.335
C   36.198  -22.745    2.806
C   34.950  -25.106    1.439
C   37.652  -23.848    1.096
C   40.195  -25.408    1.406
C   40.303  -23.478   -0.888
101
t=2
C    0.000    0.000    0.000
C   -2.649   -0.481   -1.323
C   -2.146   -0.862    1.610
C   -3.867    1.191    2.961
C   -5.656    3.268    4.180
C   -4.051    2.134    1.914
C   -6.383    0.251    1.786
C   -4.139    2.064    2.610
C   -3.300    4.867    3.274
C   -2.390    5.232    6.109
C   -2.130    7.000    8.519
C   -3.205    5.064   10.543
C   -0.510    3.770   10.297
C   -0.172    4.552   13.174
C    1.068    4.065   10.486
C    0.305    5.516    7.973
C   -1.719    7.471    6.933
C   -4.507    6.498    6.404
C   -6.415    4.851    4.777
C   -5.537    3.658    7.386
C   -5.941    1.581    5.258
C   -6.730   -1.299    4.972
C   -6.915    1.510    6.008
C   -6.370    3.494    3.825
C   -6.713    3.765    6.793
C   -4.390    2.033    6.013
C   -6.596    3.749    7.105
C   -9.316    4.631    6.199
C   -8.268    6.089    3.796
C   -9.275    3.349    4.488
C   -6.311    3.777    4.308
C   -4.115    4.429    6.246
C   -4.861    4.949    3.387
C   -7.345    3.297    3.072
C   -7.542    5.915    1.621
C   -7.006    5.409   -1.287
C   -5.832    2.664   -0.994
C   -8.230    4.072    0.130
C   -6.602    3.307   -2.271
C   -9.017    2.001   -1.062
C  -10.243    1.852    1.672
C  -10.316    1.822   -1.327
C   -9.260    4.529   -0.577
C  -10.244    5.231   -3.323
C  -12.399    6.420   -5.038
C  -10.487    8.670   -4.507
C   -8.791   10.572   -6.091
C   -7.426    8.360   -7.589
C   -5.542    6.061   -7.186
C   -6.499    3.814   -5.443
C   -7.873    1.174   -5.821
C   -8.504   -1.735   -6.198
C   -7.523    1.006   -6.923
C   -8.592    2.638   -9.201
C   -5.944    1.857   -8.027
C   -5.508   -1.064   -7.501
C   -4.590   -3.916   -7.655
C   -4.656   -0.923   -7.463
C   -3.579    1.862   -7.170
C   -4.140    3.715   -9.461
C   -3.887    2.530  -12.205
C   -2.785    2.298   -9.425
C   -3.307    3.974  -11.858
C   -5.743    4.686  -13.457
C   -3.992    3.510  -11.324
C   -3.236    2.678  -14.105
C   -4.556    4.331  -11.977
C   -4.264    7.261  -12.549
C   -4.659    9.381  -14.635
C   -7.610    9.266  -15.162
C   -9.618    7.307  -14.098
C  -12.542    7.951  -14.274
C  -11.613    9.428  -16.715
C  -10.483   12.054  -17.623
C  -12.129    9.652  -18.346
C  -14.705    9.983  -19.847
C  -13.819    7.447  -18.512
C  -15.222    4.997  -19.528
C  -12.758    3.947  -20.880
C  -10.551    1.919  -20.770
C  -12.046   -0.666  -20.482
C  -10.554    1.874  -19.917
C  -12.122    1.142  -22.367
C  -12.103    3.905  -23.537
C  -14.016    5.109  -21.565
C  -14.314    6.307  -18.831
C  -13.646    4.821  -21.349
C  -16.389    4.706  -20.142
C  -17.477    2.664  -18.232
C  -18.392    2.969  -21.072
C  -21.306    3.124  -21.772
C  -22.504    4.450  -19.363
C  -24.743    5.291  -21.173
C  -24.892    7.809  -19.549
C  -22.755    8.834  -17.711
C  -20.238   10.451  -17.936
C  -17.614   11.307  -16.761
C  -20.147   10.749  -18.268
C  -17.165   10.432  -18.170
C  -18.201   13.231  -18.476
C  -18.492   12.780  -21.427
101
t=3
C    0.000    0.000    0.000
C   -2.551    1.427   -0.676
C   -3.661   -0.958    0.766
C   -4.529   -3.616   -0.319
C   -2.663   -3.800   -2.660
C   -2.504   -1.365   -4.405
C   -0.286   -2.834   -3.019
C    2.525   -2.311   -2.109
C    2.650   -4.153   -4.473
C    5.436   -4.811   -5.370
C    8.131   -3.525   -5.078
C   10.910   -4.413   -5.778
C   10.169   -1.612   -6.555
C   11.774    0.889   -6.144
C   13.969    0.970   -4.102
C   10.984    0.724   -3.945
C   12.841   -0.169   -6.125
C   11.483    0.906   -3.675
C   12.104    1.321   -6.581
C   11.284    2.962   -4.207
C   12.880    1.391   -2.210
C   15.647    1.662   -3.337
C   16.440    2.457   -0.555
C   15.070   -0.064   -1.430
C   14.362   -0.275    1.477
C   14.129    2.663    2.038
C   16.508    4.223    1.088
C   13.622    5.004    1.337
C   10.955    5.189    2.697
C   12.201    5.402   -0.024
C   12.399    3.572    2.345
C   11.419    5.477    0.245
C    8.973    4.616   -1.263
C    7.082    4.065    1.000
C    9.757    4.050    2.358
C    9.507    2.364   -0.111
C    9.088    0.079   -2.009
C    9.398   -1.511    0.515
C   10.146   -3.392   -1.699
C    9.944   -0.617   -0.577
C    8.889   -1.100   -3.344
C    9.328   -3.262   -5.376
C    6.801   -3.307   -3.761
C    6.406   -6.280   -3.818
C    6.324   -6.256   -6.816
C    8.981   -7.040   -7.969
C    9.541   -5.269   -5.613
C    9.096   -8.204   -5.179
C    8.069  -10.025   -3.027
C    7.449  -10.343   -5.945
C    8.054   -7.404   -5.941
C    6.728  -10.073   -5.589
C    5.635  -10.601   -8.333
C    4.028  -11.619  -10.652
C    4.090   -9.238  -12.475
C    4.781  -11.970  -13.503
C    4.222  -10.377  -15.983
C    1.687   -9.881  -17.507
C   -0.874   -9.694  -19.058
C   -2.361   -9.439  -16.465
C   -3.455   -9.499  -19.258
C   -1.421  -11.253  -20.595
C   -2.537  -10.746  -17.857
C   -4.593  -12.148  -19.531
C   -6.073  -14.231  -17.959
C   -7.628  -13.702  -20.469
C   -8.393  -13.359  -17.588
C   -6.902  -12.122  -19.879
C   -4.371  -11.079  -18.653
C   -2.178   -9.804  -17.051
C   -3.520  -11.783  -15.239
C   -2.545  -14.619  -15.306
C   -0.983  -12.939  -13.373
C   -1.079  -14.223  -16.082
C   -1.423  -11.689  -14.513
C   -1.415  -14.112  -16.282
C   -4.111  -12.893  -16.781
C   -3.907  -10.432  -18.484
C   -3.568   -7.456  -18.641
C   -1.099   -6.066  -17.654
C   -2.973   -8.136  -18.751
C   -4.815   -6.582  -20.538
C   -5.489   -4.144  -22.151
C   -7.370   -6.482  -22.182
C   -8.069   -7.975  -24.688
C   -5.105   -7.972  -25.151
C   -5.665   -8.364  -28.072
C   -7.352  -10.034  -29.906
C   -5.900   -8.256  -31.837
C   -4.205   -7.342  -34.138
C   -3.465   -7.764  -31.261
C   -3.237   -8.445  -34.174
C   -5.219   -8.042  -36.390
C   -2.248   -8.311  -36.069
C   -4.986   -8.776  -37.204
C   -2.745   -7.092  -36.134
C   -5.266   -5.482  -35.895
C   -7.436   -3.763  -37.052
C   -7.574   -1.081  -38.387
C   -9.843   -3.034  -38.579
C  -10.989   -1.440  -36.311
101
t=4
C    0.000    0.000    0.000
C   -0.330   -2.900    0.694
C   -0.336    0.097    0.824
C   -0.030    1.833    3.252
C    0.501   -0.214    5.379
C    1.410   -0.764    8.185
C    1.950   -3.437    9.434
C    3.504   -0.946    8.818
C    0.876   -1.985    9.826
C    3.635   -1.115   10.621
C    5.027   -1.911   13.156
C    6.603   -1.623   10.620
C    4.449   -2.891    8.961
C    6.086   -1.266   10.879
C    5.951   -0.576   13.796
C    5.511    2.061   15.156
C    5.424   -0.934   15.019
C    5.349   -1.114   18.012
C    7.552    0.875   17.574
C    7.888   -0.075   20.399
C    6.906   -0.393   17.583
C    9.054   -2.039   16.289
C   10.168   -3.917   14.232
C   10.226   -6.882   14.689
C    7.285   -6.333   14.912
C    9.770   -4.663   15.105
C   10.427   -3.056   12.659
C    8.839   -5.570   13.061
C   10.854   -5.251   15.260
C    9.472   -3.887   17.547
C   12.157   -4.043   18.875
C   10.919   -1.629   17.594
C    8.368   -0.788   16.256
C    8.237   -1.238   13.293
C    7.590    1.051   11.464
C    7.380   -1.816   10.606
C    6.366    0.731    9.387
C    6.021   -1.997    8.186
C    8.968   -1.851    8.726
C    9.538    0.443   10.573
C   11.019    2.603    9.110
C    9.318    4.814    8.005
C   11.303    4.572   10.241
C   11.177    7.568   10.305
C   12.001    9.367    8.050
C   14.597    8.522    6.807
C   12.281    9.531    5.189
C   11.388    6.876    6.263
C   10.892    9.750    5.560
C   11.724   12.212    4.060
C   13.922   10.467    5.122
C   16.734   10.214    4.109
C   15.675    9.542    6.834
C   15.700   11.409    9.182
C   14.834   10.960   12.019
C   16.620    8.727   12.926
C   18.554   10.251   11.212
C   19.620    8.104    9.409
C   17.701    9.060   11.507
C   18.254    7.182   13.781
C   18.453    8.963   16.187
C   19.060   11.883   15.864
C   18.663   11.844   12.891
C   17.486   13.602   15.018
C   17.834   14.279   17.920
C   20.131   16.181   17.600
C   18.250   17.219   19.694
C   19.746   19.339   18.188
C   20.050   21.313   15.950
C   20.123   19.501   18.339
C   20.946   21.867   19.991
C   22.129   19.873   18.086
C   19.807   20.849   19.716
C   18.768   20.739   22.528
C   19.601   19.726   19.830
C   20.168   22.669   19.969
C   17.710   24.353   20.318
C   20.335   22.904   20.221
C   22.623   24.612   19.299
C   24.551   26.790   18.568
C   27.448   26.880   19.343
C   28.171   24.703   17.409
C   28.368   21.722   17.141
C   27.937   23.002   19.819
C   28.779   20.452   18.482
C   27.826   19.562   15.780
C   25.043   19.279   14.697
C   26.865   18.386   16.906
C   25.087   17.723   19.230
C   25.922   15.151   20.529
C   23.562   13.580   21.508
C   22.551   14.065   24.291
C   23.406   15.212   26.928
C   23.216   15.600   23.959
C   21.721   17.529   25.704
C   18.794   17.312   25.085
C   18.833   20.310   25.179
C   18.119   17.596   26.240
C   16.892   19.078   23.938
C   14.101   20.149   24.193
C   16.909   20.918   23.467
101
t=5
C    0.000    0.000    0.000
C    2.117   -1.198    1.756
C    3.156   -4.010    1.629
C    5.993   -3.956    0.658
C    5.710   -2.571   -1.988
C    4.492    0.147   -1.627
C    5.336   -1.363    0.824
C    8.074   -1.572   -0.384
C    5.375   -2.728   -1.003
C    7.306   -3.438    1.180
C    8.675   -6.041    1.776
C    6.795   -4.883    3.807
C    4.389   -6.126    5.098
C    5.651   -3.806    6.521
C    3.333   -3.515    8.403
C    1.118   -3.782    6.397
C    1.166   -1.701    4.236
C    3.435   -3.629    4.607
C    3.643   -5.556    6.896
C    5.162   -8.098    6.417
C    6.877  -10.390    7.316
C    8.877  -12.133    8.716
C    6.561  -10.661    7.504
C    7.383   -8.042    8.714
C    5.512   -6.555    6.901
C    5.360   -3.582    6.536
C    6.023   -0.773    5.714
C    8.427    0.823    4.893
C    8.935   -1.374    2.915
C    7.658   -0.806    5.570
C    6.960   -2.647    3.306
C    6.443   -0.602    5.439
C    7.607   -3.197    6.391
C    7.023   -0.456    7.460
C    9.232    1.573    7.459
C    8.770    1.227   10.403
C   10.431   -1.167    9.689
C   13.336   -1.016   10.424
C   13.350    0.939    8.149
C   15.417    2.956    8.963
C   18.255    3.091    8.002
C   19.043    3.762    5.186
C   19.491    3.984    8.144
C   16.694    4.909    8.710
C   19.266    5.964    9.839
C   19.521    4.058   12.142
C   21.133    5.553   10.101
C   21.103    6.760   12.848
C   20.755    4.170   11.373
C   19.908    2.076    9.399
C   17.435    3.735    9.042
C   20.265    2.849    9.492
C   21.230    0.256   10.652
C   18.865    1.474   12.038
C   21.597    0.965   13.167
C   23.281   -0.918   11.550
C   25.286   -1.166   13.767
C   24.010    1.508   14.240
C   26.994    1.811   14.187
C   29.779    0.709   14.014
C   31.381   -1.782   14.496
C   29.787   -0.545   12.276
C   27.881    1.759   12.521
C   29.645    3.896   13.669
C   27.017    5.093   14.481
C   28.375    5.032   17.155
C   26.677    2.971   15.786
C   28.014    4.488   13.570
C   25.054    4.915   13.325
C   23.816    7.587   13.895
C   26.211    6.809   12.264
C   27.425    9.548   12.112
C   27.637    6.841   13.386
C   26.114    5.987   10.946
C   27.426    8.664   11.282
C   28.140    6.182   12.808
C   28.939    3.323   12.374
C   27.765    1.980    9.962
C   26.914    1.013   12.671
C   25.678   -0.986   14.537
C   26.766   -0.851   17.329
C   24.680   -2.990   17.593
C   21.801   -2.768   18.407
C   21.183   -3.282   15.516
C   23.730   -2.383   14.210
C   23.448   -0.006   12.402
C   22.180   -2.317   10.970
C   23.315   -2.529   13.739
C   26.290   -2.618   13.361
C   28.566   -4.293   12.354
C   28.240   -4.020    9.385
C   25.714   -2.433    9.700
C   24.061   -4.658   10.847
C   25.884   -7.021   11.158
C   27.596   -9.423   10.609
C   28.819  -11.787    9.226
C   26.481  -10.112   10.079
C   25.398   -7.317    9.956
C   27.161   -9.631   10.688
C   27.718  -11.906   12.563
C   27.466   -8.929   12.299
101
t=6
C    0.000    0.000    0.000
C   -1.034    1.767    2.193
C   -0.630    1.410    5.144
C   -0.379   -0.987    6.930
C   -1.445    1.811    7.105
C   -0.202    3.690    9.088
C    1.332    3.134    6.571
C    1.453    0.271    5.682
C   -1.028   -1.406    5.505
C   -2.392    0.393    7.481
C   -2.106   -2.535    6.894
C   -4.650   -1.660    8.220
C   -3.907    0.787    6.651
C   -6.682    1.795    7.187
C   -6.586    0.230    4.629
C   -7.330   -0.449    1.804
C  -10.017   -1.103    2.966
C  -12.580   -1.858    1.602
C  -11.288    0.638    2.651
C  -10.397    2.786    0.755
C   -8.457    2.651    3.040
C  -11.172    2.968    4.277
C  -11.072    0.459    5.918
C  -14.032   -0.030    5.974
C  -12.617   -2.580    5.269
C  -14.772   -4.346    4.157
C  -12.255   -3.005    3.225
C  -10.033   -5.018    3.124
C  -12.428   -6.764    2.661
C  -15.008   -5.819    3.867
C  -15.912   -4.439    6.373
C  -13.560   -5.321    4.732
C  -11.103   -5.709    6.409
C  -12.992   -4.614    8.466
C  -13.534   -5.848    5.786
C  -15.921   -5.196    4.089
C  -14.451   -7.772    3.640
C  -14.691   -5.110    5.003
C  -13.806   -4.421    7.785
C  -12.076   -5.262    5.483
C  -11.579   -4.343    8.295
C  -12.861   -1.935    9.543
C  -15.367   -1.819   11.189
C  -12.913   -2.052    9.478
C  -11.716    0.550    8.583
C  -12.432    2.361   10.865
C  -12.417   -0.225   12.387
C  -13.911    2.178   13.386
C  -11.300    2.826   14.714
C   -9.487    5.193   14.384
C  -10.624    7.969   14.369
C  -13.060    9.638   13.839
C  -12.874    7.260   12.020
C  -14.874    5.640   13.561
C  -17.478    5.052   14.932
C  -19.711    3.102   15.385
C  -16.889    4.021   14.951
C  -18.567    1.535   15.008
C  -16.022    0.116   14.293
C  -13.578   -0.869   12.859
C  -15.097    0.167   15.229
C  -12.543   -0.213   16.756
C  -12.047    2.394   15.357
C   -9.391    1.375   16.310
C  -10.458    0.001   13.866
C  -12.055   -0.358   16.380
C  -14.902   -0.322   17.323
C  -12.909   -1.444   19.265
C  -14.141   -1.162   21.986
C  -13.887   -2.632   19.382
C  -15.569   -0.383   18.326
C  -16.316    0.821   20.970
C  -14.257    1.279   18.837
C  -16.309    3.224   19.840
C  -19.099    2.564   18.955
C  -19.826   -0.125   17.843
C  -21.401    0.760   20.238
C  -21.475    2.086   17.548
C  -20.470    3.026   20.213
C  -21.724    0.444   19.342
C  -20.757   -1.215   17.037
C  -22.200    1.415   17.018
C  -23.803    0.612   19.423
C  -26.047   -1.379   19.477
C  -26.476   -3.180   21.838
C  -23.926   -2.385   20.472
C  -24.635    0.457   19.824
C  -23.057    2.221   21.667
C  -24.436    3.582   19.377
C  -23.381    4.921   21.846
C  -22.419    6.593   24.143
C  -23.745    5.305   21.780
C  -23.237    2.403   21.218
C  -25.363    2.499   19.104
C  -25.202    0.652   21.462
C  -24.083    2.934   23.057
C  -23.629    0.492   24.739
C  -24.918   -0.855   27.089
C  -26.157   -2.745   25.116
C  -27.649   -4.536   23.228
C  -28.808   -4.071   25.956
101
t=7
C    0.000    0.000    0.000
C   -1.375   -2.109   -1.631
C   -2.004   -4.232    0.394
C   -4.190   -4.841    2.356
C   -1.373   -4.081    3.054
C   -1.676   -1.339    4.233
C   -1.079   -4.001    5.483
C    1.860   -4.600    5.525
C    2.952   -5.434    2.858
C    4.517   -3.597    1.076
C    4.824   -5.926   -0.790
C    2.803   -8.015   -0.050
C    4.976   -9.855    0.894
C    7.129   -9.530    2.958
C    9.794   -9.103    4.266
C    7.249   -7.625    4.847
C    4.953   -9.250    3.806
C    3.112  -10.704    5.676
C    2.453  -10.629    8.601
C    0.191  -11.095    6.686
C    1.881  -12.303    4.521
C   -0.759  -13.648    4.053
C   -1.031  -14.787    6.815
C   -0.873  -12.600    4.768
C   -2.598  -12.966    2.340
C   -3.073  -12.757   -0.615
C   -4.755  -12.615    1.865
C   -7.054  -12.358   -0.045
C   -9.370  -12.953   -1.856
C   -6.621  -11.756   -1.764
C   -4.883  -11.251   -4.156
C   -3.958  -10.833   -1.333
C   -2.735  -13.502   -1.953
C   -3.321  -11.644    0.329
C   -3.551  -14.219    1.851
C   -0.992  -13.923    3.388
C    0.520  -11.338    3.569
C    3.268  -10.135    3.545
C    4.151  -12.989    3.279
C    5.085  -10.453    4.581
C    7.428   -8.632    5.019
C    5.311   -7.477    3.234
C    4.491   -7.081    6.093
C    4.218   -9.582    4.459
C    2.595  -11.098    6.475
C    3.375   -9.145    4.336
C    0.579   -8.101    4.036
C    1.331   -9.542    1.515
C    4.179   -9.578    0.573
C    4.615   -9.021    3.489
C    5.708  -11.780    3.052
C    5.212   -8.981    4.009
C    6.726   -7.014    2.324
C    7.795   -8.289    4.820
C    8.998   -8.936    7.492
C   10.027   -6.578    9.035
C    8.219   -4.713   10.537
C    9.584   -3.046    8.449
C   12.342   -3.415    7.329
C   10.890   -5.769    6.166
C   13.417   -6.859    7.362
C   15.255   -8.789    8.738
C   18.049   -8.546    7.672
C   16.218   -8.064    5.346
C   18.384   -9.214    7.074
C   20.698  -10.029    5.348
C   19.445  -11.805    3.281
C   20.776  -14.374    2.488
C   23.469  -13.827    1.285
C   22.909  -11.127    0.104
C   22.975  -13.802   -1.252
C   24.636  -11.515   -2.257
C   24.155  -13.350   -4.581
C   26.929  -13.967   -5.541
C   27.610  -15.502   -3.055
C   25.727  -16.553   -5.141
C   24.866  -16.504   -8.014
C   26.058  -16.432   -5.263
C   28.805  -17.163   -4.302
C   29.677  -14.293   -4.273
C   32.497  -13.285   -4.097
C   30.349  -12.479   -2.163
C   28.518  -12.812    0.190
C   26.917  -10.554    1.348
C   27.529   -9.386    4.043
C   27.149   -6.412    4.136
C   28.145   -9.102    5.015
C   26.110   -7.967    6.905
C   24.583   -6.291    8.870
C   23.084   -6.049   11.457
C   25.588   -6.818    9.993
C   24.260   -9.466   10.468
C   23.940  -11.390   12.746
C   24.179  -14.379   12.629
C   21.708  -15.233   14.101
C   23.738  -14.885   16.283
C   22.261  -16.460   18.366
C   20.858  -15.161   16.054
C   20.848  -14.369   13.160
C   23.593  -14.331   14.371
C   25.031  -13.573   16.892
101
t=8
C    0.000    0.000    0.000
C    0.570    1.113   -2.727
C   -0.676   -1.614   -2.605
C   -3.657   -1.285   -2.656
C   -1.846   -2.729   -0.750
C   -0.286   -0.718    0.838
C   -0.479   -3.597    0.018
C    1.475   -1.673   -1.197
C    3.022    0.631   -0.055
C    4.495    1.368    2.452
C    2.153    0.806    4.241
C    1.658    3.594    3.252
C    4.015    5.450    3.310
C    4.651    7.306    1.040
C    2.762    6.789   -1.232
C    2.176    4.178   -2.589
C    3.476    2.413   -4.637
C    0.531    1.854   -4.512
C   -0.273    3.560   -6.846
C   -1.737    1.080   -7.687
C   -0.370    3.373   -6.317
C   -0.320    1.312   -4.138
C   -2.753   -0.444   -4.158
C   -0.997    1.949   -3.721
C    0.639    2.520   -6.170
C    0.414    3.975   -8.784
C    0.647    6.871   -8.037
C   -1.556    5.657   -9.672
C   -0.829    2.824  -10.337
C   -3.330    3.408   -8.787
C   -3.498    5.838   -7.036
C   -1.204    7.759   -7.248
C   -2.393    7.511   -9.991
C   -0.595    5.267  -10.848
C   -1.820    2.719  -11.851
C   -3.398    0.866  -10.098
C   -5.988    0.915  -11.611
C   -8.128    2.886  -10.879
C   -8.594    3.675  -13.735
C  -11.198    2.194  -13.899
C   -9.317    1.360  -16.083
C  -11.163    1.000  -18.419
C   -8.776    2.501  -17.397
C   -6.387    0.859  -16.623
C   -6.922   -1.699  -18.096
C   -4.015   -2.365  -18.418
C   -4.086   -4.263  -16.096
C   -6.919   -5.249  -16.070
C   -6.893   -6.025  -18.968
C   -5.329   -6.525  -21.479
C   -3.032   -7.833  -20.061
C   -3.026   -7.810  -23.061
C   -4.791   -7.252  -25.422
C   -5.497   -7.374  -28.335
C   -5.948   -4.409  -28.397
C   -6.733   -7.187  -29.211
C   -9.327   -8.485  -29.978
C   -8.212   -7.891  -32.699
C  -11.200   -7.622  -32.697
C  -10.844  -10.037  -30.953
C  -13.115   -9.031  -32.635
C  -14.681   -8.335  -35.097
C  -15.235   -8.714  -32.173
C  -16.618  -10.400  -34.233
C  -18.980  -11.223  -35.890
C  -20.639   -8.732  -36.100
C  -21.590   -6.459  -37.811
C  -18.860   -6.738  -36.598
C  -19.056   -6.916  -39.586
C  -16.785   -8.251  -38.152
C  -14.298   -9.450  -36.978
C  -14.125   -7.163  -38.912
C  -12.018   -5.177  -38.126
C  -13.342   -7.719  -39.013
C  -16.310   -8.098  -39.231
C  -15.006   -5.420  -38.877
C  -17.849   -5.917  -38.059
C  -18.650   -7.369  -40.559
C  -18.339   -4.594  -41.655
C  -16.414   -4.096  -43.902
C  -17.165   -3.592  -41.041
C  -18.864   -5.382  -39.335
C  -18.049   -5.311  -36.448
C  -16.284   -3.043  -37.310
C  -19.106   -2.599  -38.228
C  -20.453   -3.067  -40.868
C  -21.383   -5.444  -39.291
C  -21.534   -2.848  -40.788
C  -19.495   -1.121  -39.424
C  -17.107    0.217  -38.197
C  -14.867   -1.735  -37.782
C  -16.224   -0.984  -40.350
C  -17.735    1.258  -41.651
C  -17.287    1.142  -44.615
C  -16.179    1.193  -47.403
C  -17.308   -0.344  -49.718
C  -14.753   -1.574  -50.697
C  -13.270   -3.760  -52.119
C  -15.883   -4.491  -50.840
C  -16.885   -3.016  -48.428
C  -17.387   -5.043  -50.581
101
t=9
C    0.000    0.000    0.000
C   -0.065    2.993    0.189
C   -1.277    0.468   -0.884
C   -4.157   -0.286   -1.254
C   -2.048    1.445   -2.501
C   -4.552    2.905   -1.727
C   -4.649    2.234   -4.650
C   -4.111    2.112   -1.701
C   -5.207   -0.601   -1.042
C   -2.390   -1.352   -1.749
C   -4.377   -0.986    0.468
C   -3.405    1.671   -0.529
C   -5.324    2.651   -2.616
C   -5.693    5.335   -1.327
C   -7.696    4.389    0.696
C   -5.508    3.358    2.470
C   -6.247    1.724    0.065
C   -5.434    2.804    2.743
C   -2.602    2.123    2.026
C   -4.130    0.584    4.099
C   -1.263    1.399    3.755
C    1.252    2.837    4.532
C    2.799    4.428    2.513
C    0.795    2.757    3.993
C   -0.666    0.468    2.718
C   -2.104   -1.473    0.939
C    0.071   -2.361    2.804
C   -0.329    0.478    3.686
C    1.086    2.915    4.715
C   -0.768    2.216    6.968
C   -2.479    0.527    5.174
C   -3.184    3.075    6.593
C   -4.626    2.413    9.139
C   -5.265    4.661   11.020
C   -3.242    6.332   12.475
C   -3.454    5.505   15.351
C   -4.464    7.948   13.933
C   -4.490    5.315   12.495
C   -6.218    6.749   14.485
C   -8.366    4.655   14.409
C   -5.722    4.336   13.027
C   -7.831    3.762   15.082
C   -6.080    6.188   14.860
C   -7.775    6.182   17.335
C  -10.103    4.860   18.689
C   -8.323    6.903   19.977
C   -6.608    6.387   22.383
C   -5.648    4.091   20.707
C   -7.155    3.035   23.076
C   -6.637    5.608   21.624
C   -8.817    6.232   19.659
C   -6.900    6.795   17.422
C   -6.336    4.700   15.350
C   -7.622    6.915   16.911
C   -9.382    5.636   18.976
C   -7.617    5.054   16.621
C   -7.653    8.039   16.916
C   -6.701   10.854   16.505
C   -8.556   12.425   18.262
C   -8.445   10.639   20.670
C   -5.664    9.520   20.794
C   -6.314   12.405   21.297
C   -7.597   11.124   23.687
C   -8.943    9.892   21.306
C   -6.589   10.819   19.694
C   -4.531   12.530   18.339
C   -2.481   12.739   20.520
C   -2.630   15.146   18.735
C   -4.675   13.011   19.242
C   -2.275   11.966   20.708
C   -1.432    9.130   20.214
C   -3.861   10.419   19.016
C   -2.464    8.824   21.138
C   -3.355    7.656   18.523
C   -0.884    9.318   18.878
C    0.905    7.273   20.149
C    2.346    9.644   19.010
C    4.430   11.712   19.629
C    3.015   11.800   16.984
C    2.115   14.372   18.237
C    1.829   12.156   16.236
C    0.860   10.350   18.427
C    0.123   13.241   18.119
C   -2.263   13.370   16.305
C   -2.606   12.485   19.151
C   -3.594   10.578   17.057
C   -4.335   12.423   19.303
C   -6.812   12.772   20.960
C   -8.173   11.591   23.359
C   -6.935   11.673   20.627
C   -4.240   11.871   19.325
C   -6.475   10.341   18.035
C   -5.796   12.832   16.508
C   -2.977   12.369   15.594
C   -0.350   12.784   14.205
C    0.517   13.863   16.866
C    2.735   15.013   18.528
C    0.502   14.090   16.749
C    1.698   11.524   15.755
C    4.673   11.857   15.569
C    2.005   10.522   15.886
